#set relax_naming_rules=1

#set profiler=1

#define VSOURCE=66395.3


clock {
	timezone EST+5EDT;
	starttime '2000-01-01 0:00:00';
	stoptime '2000-01-01 0:00:00';
}

module powerflow {
	solver_method NR;
	line_capacitance TRUE;
	line_limits false;
};

module generators;

module tape;

module reliability {
	report_event_log false;
};

object line_configuration {
	name "lcon2d1insn2d1aaacdefaultohconstcC";
	z33 1.96912+1.21312j;
	c33 10.7508;
}

object line_configuration {
	name "lconpn2d1aaacdefaultohconstcC";
	z33 1.96912+1.21312j;
	c33 10.6559;
}

object line_configuration {
	name "lconpn6adefaultohconstaA";
	z11 2.53543+1.37044j;
	c11 10.2345;
}

object line_configuration {
	name "lconpppn2d1aaacdefaultohconstabcABC";
	z11 1.96912+1.21312j;
	c11 10.6559;
	z12 0.339116+0.639221j;
	c12 0.0000;
	z13 0.339116+0.639221j;
	c13 0.0000;
	z21 0.339116+0.639221j;
	c21 0.0000;
	z22 1.96912+1.21312j;
	c22 10.6559;
	z23 0.339116+0.639221j;
	c23 0.0000;
	z31 0.339116+0.639221j;
	c31 0.0000;
	z32 0.339116+0.639221j;
	c32 0.0000;
	z33 1.96912+1.21312j;
	c33 10.6559;
}

object line_configuration {
	name "lcon2d1insn2d1aaacdefaultohconstbB";
	z22 1.96912+1.21312j;
	c22 10.7508;
}

object line_configuration {
	name "lconpppn336d1acsrdefaultohconstabcABC";
	z11 0.412270+0.774206j;
	c11 11.7710;
	z12 0.134270+0.323642j;
	c12 0.0000;
	z13 0.134270+0.323642j;
	c13 0.0000;
	z21 0.134270+0.323642j;
	c21 0.0000;
	z22 0.412270+0.774206j;
	c22 11.7710;
	z23 0.134270+0.323642j;
	c23 0.0000;
	z31 0.134270+0.323642j;
	c31 0.0000;
	z32 0.134270+0.323642j;
	c32 0.0000;
	z33 0.412270+0.774206j;
	c33 11.7710;
}

object line_configuration {
	name "lcon2d1insn2d1acsrdefaultohconstcC";
	z33 1.94566+1.17650j;
	c33 10.7508;
}

object line_configuration {
	name "lcon2d1insn2d1acsrdefaultohconstbB";
	z22 1.94566+1.17650j;
	c22 10.7508;
}

object line_configuration {
	name "lconpppn2d1acsrdefaultohconstabcABC";
	z11 1.72566+1.26725j;
	c11 10.6204;
	z12 0.315658+0.602602j;
	c12 0.0000;
	z13 0.315658+0.602602j;
	c13 0.0000;
	z21 0.315658+0.602602j;
	c21 0.0000;
	z22 1.72566+1.26725j;
	c22 10.6204;
	z23 0.315658+0.602602j;
	c23 0.0000;
	z31 0.315658+0.602602j;
	c31 0.0000;
	z32 0.315658+0.602602j;
	c32 0.0000;
	z33 1.72566+1.26725j;
	c33 10.6204;
}

object line_configuration {
	name "lconpud2-10d1220defaultugconstaA";
	z11 1.67124+1.20601j;
	c11 204.4739;
}

object line_configuration {
	name "lconppp2d1insn6adefaultohconstabcABC";
	z11 1.95543+1.29623j;
	c11 10.7508;
	z12 0.325430+0.722328j;
	c12 0.0000;
	z13 0.325430+0.722328j;
	c13 0.0000;
	z21 0.325430+0.722328j;
	c21 0.0000;
	z22 1.95543+1.29623j;
	c22 10.7508;
	z23 0.325430+0.722328j;
	c23 0.0000;
	z31 0.325430+0.722328j;
	c31 0.0000;
	z32 0.325430+0.722328j;
	c32 0.0000;
	z33 1.95543+1.29623j;
	c33 10.7508;
}

object line_configuration {
	name "lcon2d1insn6adefaultohconstbB";
	z22 1.95543+1.29623j;
	c22 10.7508;
}

object line_configuration {
	name "lconppp40d1insn10d1acsrdefaultohconstabcABC";
	z11 0.705913+1.00171j;
	c11 11.4020;
	z12 0.263913+0.498410j;
	c12 0.0000;
	z13 0.263913+0.498410j;
	c13 0.0000;
	z21 0.263913+0.498410j;
	c21 0.0000;
	z22 0.705913+1.00171j;
	c22 11.4020;
	z23 0.263913+0.498410j;
	c23 0.0000;
	z31 0.263913+0.498410j;
	c31 0.0000;
	z32 0.263913+0.498410j;
	c32 0.0000;
	z33 0.705913+1.00171j;
	c33 11.4020;
}

object line_configuration {
	name "lcon2d1insn2d1aaacdefaultohconstaA";
	z11 1.96912+1.21312j;
	c11 10.7508;
}

object line_configuration {
	name "lconpud2-10d1220defaultugconstbB";
	z22 1.67124+1.20601j;
	c22 204.4739;
}

object line_configuration {
	name "lcon2d1insn2d1acsrdefaultohconstaA";
	z11 1.94566+1.17650j;
	c11 10.7508;
}

object line_configuration {
	name "lconpn6adefaultohconstbB";
	z22 2.53543+1.37044j;
	c22 10.2344;
}

object line_configuration {
	name "lconppp336d1acsrn10d1insdefaultohconstabcABC";
	z11 0.586751+0.964105j;
	c11 11.7710;
	z12 0.308751+0.513541j;
	c12 0.0000;
	z13 0.308751+0.513541j;
	c13 0.0000;
	z21 0.308751+0.513541j;
	c21 0.0000;
	z22 0.586751+0.964105j;
	c22 11.7710;
	z23 0.308751+0.513541j;
	c23 0.0000;
	z31 0.308751+0.513541j;
	c31 0.0000;
	z32 0.308751+0.513541j;
	c32 0.0000;
	z33 0.586751+0.964105j;
	c33 11.7710;
}

object line_configuration {
	name "lconppp10d1insn6adefaultohconstabcABC";
	z11 1.35543+1.26803j;
	c11 10.9194;
	z12 0.325430+0.722328j;
	c12 0.0000;
	z13 0.325430+0.722328j;
	c13 0.0000;
	z21 0.325430+0.722328j;
	c21 0.0000;
	z22 1.35543+1.26803j;
	c22 10.9194;
	z23 0.325430+0.722328j;
	c23 0.0000;
	z31 0.325430+0.722328j;
	c31 0.0000;
	z32 0.325430+0.722328j;
	c32 0.0000;
	z33 1.35543+1.26803j;
	c33 10.9194;
}

object line_configuration {
	name "lconpn2d1insdefaultohconstaA";
	z11 1.96912+1.21312j;
	c11 10.7508;
}

object line_configuration {
	name "lconpud2-10d1220defaultugconstcC";
	z33 1.67124+1.20601j;
	c33 204.4739;
}

object line_configuration {
	name "lconpn2d1insdefaultohconstbB";
	z22 1.96911+1.21312j;
	c22 10.7508;
}

object line_configuration {
	name "lconpn2d1acsrdefaultohconstaA";
	z11 1.72566+1.26725j;
	c11 10.6204;
}

object line_configuration {
	name "lconppp556d1acsrn336d1acsrdefaultohconstabcABC";
	z11 0.302270+0.743988j;
	c11 12.1758;
	z12 0.134270+0.323642j;
	c12 0.0000;
	z13 0.134270+0.323642j;
	c13 0.0000;
	z21 0.134270+0.323642j;
	c21 0.0000;
	z22 0.302270+0.743988j;
	c22 12.1758;
	z23 0.134270+0.323642j;
	c23 0.0000;
	z31 0.134270+0.323642j;
	c31 0.0000;
	z32 0.134270+0.323642j;
	c32 0.0000;
	z33 0.302270+0.743988j;
	c33 12.1758;
}

object line_configuration {
	name "lconpn2d1acsrdefaultohconstbB";
	z22 1.72566+1.26725j;
	c22 10.6204;
}

object line_configuration {
	name "lconpppud2-10d1220defaultugconstabcABC";
	z11 1.72410+0.649009j;
	c11 204.4739;
	z12 0.612433+0.413694j;
	c12 0.0000;
	z13 0.612433+0.413694j;
	c13 0.0000;
	z21 0.612433+0.413694j;
	c21 0.0000;
	z22 1.72410+0.649009j;
	c22 204.4739;
	z23 0.612433+0.413694j;
	c23 0.0000;
	z31 0.612433+0.413694j;
	c31 0.0000;
	z32 0.612433+0.413694j;
	c32 0.0000;
	z33 1.72410+0.649009j;
	c33 204.4739;
}

object line_configuration {
	name "lconpppud2-2aldefaultugconstabcABC";
	z11 2.33857+0.810528j;
	c11 189.4970;
	z12 0.646423+0.539321j;
	c12 0.0000;
	z13 0.646423+0.539321j;
	c13 0.0000;
	z21 0.646423+0.539321j;
	c21 0.0000;
	z22 2.33857+0.810528j;
	c22 189.4970;
	z23 0.646423+0.539321j;
	c23 0.0000;
	z31 0.646423+0.539321j;
	c31 0.0000;
	z32 0.646423+0.539321j;
	c32 0.0000;
	z33 2.33857+0.810528j;
	c33 189.4970;
}

object line_configuration {
	name "lcon2d1insn6adefaultohconstaA";
	z11 1.95543+1.29623j;
	c11 10.7508;
}

object line_configuration {
	name "lconpud2-2aldefaultugconstcC";
	z33 2.19468+1.32105j;
	c33 189.4970;
}

object line_configuration {
	name "lconpppmowugd1ugd1conductordefaultugsecconstabcABC";
	z11 1.72160+0.658816j;
	c11 204.4738;
	z12 0.608992+0.409580j;
	c12 0.0000;
	z13 0.608992+0.409580j;
	c13 0.0000;
	z21 0.608992+0.409580j;
	c21 0.0000;
	z22 1.72160+0.658816j;
	c22 204.4738;
	z23 0.608992+0.409580j;
	c23 0.0000;
	z31 0.608992+0.409580j;
	c31 0.0000;
	z32 0.608992+0.409580j;
	c32 0.0000;
	z33 1.72160+0.658816j;
	c33 204.4738;
}

object line_configuration {
	name "lconppp10d1insn10d1aaacdefaultohconstabcABC";
	z11 1.33875+1.05924j;
	c11 10.9194;
	z12 0.308751+0.513541j;
	c12 0.0000;
	z13 0.308751+0.513541j;
	c13 0.0000;
	z21 0.308751+0.513541j;
	c21 0.0000;
	z22 1.33875+1.05924j;
	c22 10.9194;
	z23 0.308751+0.513541j;
	c23 0.0000;
	z31 0.308751+0.513541j;
	c31 0.0000;
	z32 0.308751+0.513541j;
	c32 0.0000;
	z33 1.33875+1.05924j;
	c33 10.9194;
}

object line_configuration {
	name "lcon6a2d1acsr6an2d1acsrdefaultohconstabcABC";
	z11 2.52566+1.25072j;
	c11 10.2344;
	z12 0.315658+0.602602j;
	c12 0.0000;
	z13 0.315658+0.602602j;
	c13 0.0000;
	z21 0.315658+0.602602j;
	c21 0.0000;
	z22 1.72566+1.26725j;
	c22 10.6204;
	z23 0.315658+0.602602j;
	c23 0.0000;
	z31 0.315658+0.602602j;
	c31 0.0000;
	z32 0.315658+0.602602j;
	c32 0.0000;
	z33 2.52566+1.25072j;
	c33 10.2344;
}

object line_configuration {
	name "lconpn6adefaultohconstcC";
	z33 2.53543+1.37044j;
	c33 10.2344;
}

object line_configuration {
	name "lconpn2d1aaacdefaultohconstbB";
	z22 1.96912+1.21312j;
	c22 10.6559;
}

object line_configuration {
	name "lconpn2d1acsrdefaultohconstcC";
	z33 1.72566+1.26725j;
	c33 10.6204;
}

object line_configuration {
	name "lcon10d1insn10d1aaacdefaultohconstcC";
	z33 1.33875+1.05924j;
	c33 10.9194;
}

object line_configuration {
	name "lcon2d1insn6adefaultohconstcC";
	z33 1.95543+1.29623j;
	c33 10.7508;
}

object line_configuration {
	name "lcon6an2d1acsrdefaultohconstcC";
	z33 2.52566+1.25072j;
	c33 10.2344;
}

object line_configuration {
	name "lcon2d1acsr10d1ins2d1acsrn2d1acsrdefaultohconstabcABC";
	z11 1.72566+1.26725j;
	c11 10.6204;
	z12 0.315658+0.602602j;
	c12 0.0000;
	z13 0.315658+0.602602j;
	c13 0.0000;
	z21 0.315658+0.602602j;
	c21 0.0000;
	z22 1.34566+1.14830j;
	c22 10.9194;
	z23 0.315658+0.602602j;
	c23 0.0000;
	z31 0.315658+0.602602j;
	c31 0.0000;
	z32 0.315658+0.602602j;
	c32 0.0000;
	z33 1.72566+1.26725j;
	c33 10.6204;
}

object line_configuration {
	name "lconpuk3-40defaultugconstaA";
	z11 0.230470+1.09507j;
	c11 0.0000;
}

object line_configuration {
	name "lconpn10d1acsrdefaultohconstbB";
	z22 1.15191+1.15519j;
	c22 10.9194;
}

object line_configuration {
	name "lcon10d1insn10d1aaacdefaultohconstbB";
	z22 1.33875+1.05924j;
	c22 10.9194;
}

object line_configuration {
	name "lconppp336d1ald1insn40d1acsrdefaultohconstabcABC";
	z11 0.452333+0.847459j;
	c11 11.7710;
	z12 0.174333+0.396895j;
	c12 0.0000;
	z13 0.174333+0.396895j;
	c13 0.0000;
	z21 0.174333+0.396895j;
	c21 0.0000;
	z22 0.452333+0.847459j;
	c22 11.7710;
	z23 0.174333+0.396895j;
	c23 0.0000;
	z31 0.174333+0.396895j;
	c31 0.0000;
	z32 0.174333+0.396895j;
	c32 0.0000;
	z33 0.452333+0.847459j;
	c33 11.7710;
}

object line_configuration {
	name "lconppp336d1acsrn10d1acsrdefaultohconstabcABC";
	z11 0.541913+0.948974j;
	c11 11.7710;
	z12 0.263913+0.498410j;
	c12 0.0000;
	z13 0.263913+0.498410j;
	c13 0.0000;
	z21 0.263913+0.498410j;
	c21 0.0000;
	z22 0.541913+0.948974j;
	c22 11.7710;
	z23 0.263913+0.498410j;
	c23 0.0000;
	z31 0.263913+0.498410j;
	c31 0.0000;
	z32 0.263913+0.498410j;
	c32 0.0000;
	z33 0.541913+0.948974j;
	c33 11.7710;
}

object line_configuration {
	name "lconpud2-2aldefaultugconstaA";
	z11 2.19468+1.32105j;
	c11 189.4970;
}

object line_configuration {
	name "lconpud2-2aldefaultugconstbB";
	z22 2.19468+1.32105j;
	c22 189.4970;
}

object line_configuration {
	name "lconppp10d1insn10d1acsrdefaultohconstabcABC";
	z11 1.29391+1.04411j;
	c11 10.9194;
	z12 0.263913+0.498410j;
	c12 0.0000;
	z13 0.263913+0.498410j;
	c13 0.0000;
	z21 0.263913+0.498410j;
	c21 0.0000;
	z22 1.29391+1.04411j;
	c22 10.9194;
	z23 0.263913+0.498410j;
	c23 0.0000;
	z31 0.263913+0.498410j;
	c31 0.0000;
	z32 0.263913+0.498410j;
	c32 0.0000;
	z33 1.29391+1.04411j;
	c33 10.9194;
}

object line_configuration {
	name "lconppp336d1acsrn40d1acsrdefaultohconstabcABC";
	z11 0.452333+0.847459j;
	c11 11.7710;
	z12 0.174333+0.396895j;
	c12 0.0000;
	z13 0.174333+0.396895j;
	c13 0.0000;
	z21 0.174333+0.396895j;
	c21 0.0000;
	z22 0.452333+0.847459j;
	c22 11.7710;
	z23 0.174333+0.396895j;
	c23 0.0000;
	z31 0.174333+0.396895j;
	c31 0.0000;
	z32 0.174333+0.396895j;
	c32 0.0000;
	z33 0.452333+0.847459j;
	c33 11.7710;
}

object line_configuration {
	name "lconpppn10d1aaacdefaultohconstabcABC";
	z11 1.33875+1.05924j;
	c11 10.9194;
	z12 0.308751+0.513541j;
	c12 0.0000;
	z13 0.308751+0.513541j;
	c13 0.0000;
	z21 0.308751+0.513541j;
	c21 0.0000;
	z22 1.33875+1.05924j;
	c22 10.9194;
	z23 0.308751+0.513541j;
	c23 0.0000;
	z31 0.308751+0.513541j;
	c31 0.0000;
	z32 0.308751+0.513541j;
	c32 0.0000;
	z33 1.33875+1.05924j;
	c33 10.9194;
}

object line_configuration {
	name "lcon10d1insn10d1aaacdefaultohconstaA";
	z11 1.33875+1.05924j;
	c11 10.9194;
}

object line_configuration {
	name "lcon2d1insn4d1acsrdefaultohconstbB";
	z22 1.95360+1.29949j;
	c22 10.7508;
}

object line_configuration {
	name "lcon2d1insn10d1aaacdefaultohconstbB";
	z22 1.93875+1.08744j;
	c22 10.7508;
}

object line_configuration {
	name "lcon2d1acsrn2d1insdefaultohconstcC";
	z33 1.74912+1.30387j;
	c33 10.6204;
}

object line_configuration {
	name "lconppn2d1insdefaultohconstacAC";
	z11 1.96911+1.21312j;
	c11 10.7508;
	z13 0.339116+0.639221j;
	c13 0.0000;
	z31 0.339116+0.639221j;
	c31 0.0000;
	z33 1.96911+1.21312j;
	c33 10.7508;
}

object line_configuration {
	name "lconpn10d1acsrdefaultohconstcC";
	z33 1.15191+1.15519j;
	c33 10.9194;
}

object line_configuration {
	name "lconppp2d1insn2d1acsrdefaultohconstabcABC";
	z11 1.94566+1.17650j;
	c11 10.7508;
	z12 0.315658+0.602602j;
	c12 0.0000;
	z13 0.315658+0.602602j;
	c13 0.0000;
	z21 0.315658+0.602602j;
	c21 0.0000;
	z22 1.94566+1.17650j;
	c22 10.7508;
	z23 0.315658+0.602602j;
	c23 0.0000;
	z31 0.315658+0.602602j;
	c31 0.0000;
	z32 0.315658+0.602602j;
	c32 0.0000;
	z33 1.94566+1.17650j;
	c33 10.7508;
}

object line_configuration {
	name "lconppp394d1insn40d1aaacdefaultohconstabcABC";
	z11 0.441225+0.788059j;
	c11 11.9484;
	z12 0.187225+0.370397j;
	c12 0.0000;
	z13 0.187225+0.370397j;
	c13 0.0000;
	z21 0.187225+0.370397j;
	c21 0.0000;
	z22 0.441225+0.788059j;
	c22 11.9484;
	z23 0.187225+0.370397j;
	c23 0.0000;
	z31 0.187225+0.370397j;
	c31 0.0000;
	z32 0.187225+0.370397j;
	c32 0.0000;
	z33 0.441225+0.788059j;
	c33 11.9484;
}

object line_configuration {
	name "lconppp336d1acsrn40d1aaacdefaultohconstabcABC";
	z11 0.465225+0.820961j;
	c11 11.7710;
	z12 0.187225+0.370397j;
	c12 0.0000;
	z13 0.187225+0.370397j;
	c13 0.0000;
	z21 0.187225+0.370397j;
	c21 0.0000;
	z22 0.465225+0.820961j;
	c22 11.7710;
	z23 0.187225+0.370397j;
	c23 0.0000;
	z31 0.187225+0.370397j;
	c31 0.0000;
	z32 0.187225+0.370397j;
	c32 0.0000;
	z33 0.465225+0.820961j;
	c33 11.7710;
}

object line_configuration {
	name "lcon10d1insn2d1aaacdefaultohconstaA";
	z11 1.36912+1.18492j;
	c11 10.9194;
}

object line_configuration {
	name "lcon10d1ins10d1aaac10d1insn10d1aaacdefaultohconstabcABC";
	z11 1.33875+1.05924j;
	c11 10.9194;
	z12 0.308751+0.513541j;
	c12 0.0000;
	z13 0.308751+0.513541j;
	c13 0.0000;
	z21 0.308751+0.513541j;
	c21 0.0000;
	z22 1.33875+1.05924j;
	c22 10.9194;
	z23 0.308751+0.513541j;
	c23 0.0000;
	z31 0.308751+0.513541j;
	c31 0.0000;
	z32 0.308751+0.513541j;
	c32 0.0000;
	z33 1.33875+1.05924j;
	c33 10.9194;
}

object line_configuration {
	name "lcon10d1insn10d1acsrdefaultohconstbB";
	z22 1.29391+1.04411j;
	c22 10.9194;
}

object line_configuration {
	name "lconpn2d1aaacdefaultohconstaA";
	z11 1.96912+1.21312j;
	c11 10.6559;
}

object line_configuration {
	name "lconpppnunknownd1secondaryovedefaultohsecconstabcABC";
	z11 1.58042+0.672218j;
	c11 70.0531;
	z12 0.550418+0.507857j;
	c12 -23.4695;
	z13 0.550418+0.507857j;
	c13 -23.4695;
	z21 0.550418+0.507857j;
	c21 -23.4695;
	z22 1.58042+0.672218j;
	c22 70.0531;
	z23 0.550418+0.507857j;
	c23 -23.4695;
	z31 0.550418+0.507857j;
	c31 -23.4695;
	z32 0.550418+0.507857j;
	c32 -23.4695;
	z33 1.58042+0.672218j;
	c33 70.0531;
}

object line_configuration {
	name "lconpppn6adefaultohconstabcABC";
	z11 2.53543+1.37044j;
	c11 10.2344;
	z12 0.325430+0.722328j;
	c12 0.0000;
	z13 0.325430+0.722328j;
	c13 0.0000;
	z21 0.325430+0.722328j;
	c21 0.0000;
	z22 2.53543+1.37044j;
	c22 10.2344;
	z23 0.325430+0.722328j;
	c23 0.0000;
	z31 0.325430+0.722328j;
	c31 0.0000;
	z32 0.325430+0.722328j;
	c32 0.0000;
	z33 2.53543+1.37044j;
	c33 10.2344;
}

object line_configuration {
	name "lcon2d1insn4d1acsrdefaultohconstcC";
	z33 1.95360+1.29949j;
	c33 10.7508;
}

object line_configuration {
	name "lconpppn4d1acsrdefaultohconstabcABC";
	z11 2.56360+1.38484j;
	c11 10.3330;
	z12 0.323595+0.725593j;
	c12 0.0000;
	z13 0.323595+0.725593j;
	c13 0.0000;
	z21 0.323595+0.725593j;
	c21 0.0000;
	z22 2.56360+1.38484j;
	c22 10.3330;
	z23 0.323595+0.725593j;
	c23 0.0000;
	z31 0.323595+0.725593j;
	c31 0.0000;
	z32 0.323595+0.725593j;
	c32 0.0000;
	z33 2.56360+1.38484j;
	c33 10.3330;
}

object line_configuration {
	name "lconppp556d1ald1insn336d1acsrdefaultohconstabcABC";
	z11 0.303270+0.761920j;
	c11 12.2218;
	z12 0.134270+0.323642j;
	c12 0.0000;
	z13 0.134270+0.323642j;
	c13 0.0000;
	z21 0.134270+0.323642j;
	c21 0.0000;
	z22 0.303270+0.761920j;
	c22 12.2218;
	z23 0.134270+0.323642j;
	c23 0.0000;
	z31 0.134270+0.323642j;
	c31 0.0000;
	z32 0.134270+0.323642j;
	c32 0.0000;
	z33 0.303270+0.761920j;
	c33 12.2218;
}

object line_configuration {
	name "lconpn10d1aaacdefaultohconstcC";
	z33 1.33875+1.05924j;
	c33 10.9194;
}

object line_configuration {
	name "lconpp2d1insn2d1acsrdefaultohconstacAC";
	z11 1.94566+1.17650j;
	c11 10.7508;
	z13 0.315658+0.602602j;
	c13 0.0000;
	z31 0.315658+0.602602j;
	c31 0.0000;
	z33 1.94566+1.17650j;
	c33 10.7508;
}

object line_configuration {
	name "lconppp336d1ald1insn336d1acsrdefaultohconstabcABC";
	z11 0.412270+0.774206j;
	c11 11.7710;
	z12 0.134270+0.323642j;
	c12 0.0000;
	z13 0.134270+0.323642j;
	c13 0.0000;
	z21 0.134270+0.323642j;
	c21 0.0000;
	z22 0.412270+0.774206j;
	c22 11.7710;
	z23 0.134270+0.323642j;
	c23 0.0000;
	z31 0.134270+0.323642j;
	c31 0.0000;
	z32 0.134270+0.323642j;
	c32 0.0000;
	z33 0.412270+0.774206j;
	c33 11.7710;
}

object line_configuration {
	name "lcon2d1acsrn6adefaultohconstaA";
	z11 1.73543+1.38697j;
	c11 10.6204;
}

object line_configuration {
	name "lconppp556d1acsrn336d1ald1insdefaultohconstabcABC";
	z11 0.302270+0.743988j;
	c11 12.1758;
	z12 0.134270+0.323642j;
	c12 0.0000;
	z13 0.134270+0.323642j;
	c13 0.0000;
	z21 0.134270+0.323642j;
	c21 0.0000;
	z22 0.302270+0.743988j;
	c22 12.1758;
	z23 0.134270+0.323642j;
	c23 0.0000;
	z31 0.134270+0.323642j;
	c31 0.0000;
	z32 0.134270+0.323642j;
	c32 0.0000;
	z33 0.302270+0.743988j;
	c33 12.1758;
}

object line_configuration {
	name "lconppp2d1insn2d1aaacdefaultohconstabcABC";
	z11 1.96912+1.21312j;
	c11 10.7508;
	z12 0.339116+0.639221j;
	c12 0.0000;
	z13 0.339116+0.639221j;
	c13 0.0000;
	z21 0.339116+0.639221j;
	c21 0.0000;
	z22 1.96912+1.21312j;
	c22 10.7508;
	z23 0.339116+0.639221j;
	c23 0.0000;
	z31 0.339116+0.639221j;
	c31 0.0000;
	z32 0.339116+0.639221j;
	c32 0.0000;
	z33 1.96912+1.21312j;
	c33 10.7508;
}

object line_configuration {
	name "lconpn10d1aaacdefaultohconstaA";
	z11 1.33875+1.05924j;
	c11 10.9194;
}

object line_configuration {
	name "lconpmowugd1ugd1conductordefaultugconstbB";
	z22 1.67124+1.20601j;
	c22 204.4738;
}

object line_configuration {
	name "lconpp10d1insn10d1acsrdefaultohconstacAC";
	z11 1.29391+1.04411j;
	c11 10.9194;
	z13 0.263913+0.498410j;
	c13 0.0000;
	z31 0.263913+0.498410j;
	c31 0.0000;
	z33 1.29391+1.04411j;
	c33 10.9194;
}

object line_configuration {
	name "lcon2d1acsrn6adefaultohconstcC";
	z33 1.73543+1.38697j;
	c33 10.6204;
}

object line_configuration {
	name "lconppp336d1acsrn2d1aaacdefaultohconstabcABC";
	z11 0.617116+1.08978j;
	c11 11.7710;
	z12 0.339116+0.639221j;
	c12 0.0000;
	z13 0.339116+0.639221j;
	c13 0.0000;
	z21 0.339116+0.639221j;
	c21 0.0000;
	z22 0.617116+1.08978j;
	c22 11.7710;
	z23 0.339116+0.639221j;
	c23 0.0000;
	z31 0.339116+0.639221j;
	c31 0.0000;
	z32 0.339116+0.639221j;
	c32 0.0000;
	z33 0.617116+1.08978j;
	c33 11.7710;
}

object line_configuration {
	name "lconppp40d1acsrn10d1acsrdefaultohconstabcABC";
	z11 0.708913+1.08218j;
	c11 12.1758;
	z12 0.263913+0.498410j;
	c12 0.0000;
	z13 0.263913+0.498410j;
	c13 0.0000;
	z21 0.263913+0.498410j;
	c21 0.0000;
	z22 0.708913+1.08218j;
	c22 12.1758;
	z23 0.263913+0.498410j;
	c23 0.0000;
	z31 0.263913+0.498410j;
	c31 0.0000;
	z32 0.263913+0.498410j;
	c32 0.0000;
	z33 0.708913+1.08218j;
	c33 12.1758;
}

object line_configuration {
	name "lcon2d1acsrn6adefaultohconstbB";
	z22 1.73543+1.38697j;
	c22 10.6204;
}

object line_configuration {
	name "lconppp559d1aaacn40d1aaacdefaultohconstabcABC";
	z11 0.230325+0.691356j;
	c11 12.0490;
	z12 0.187225+0.370397j;
	c12 0.0000;
	z13 0.187225+0.370397j;
	c13 0.0000;
	z21 0.187225+0.370397j;
	c21 0.0000;
	z22 0.230325+0.691356j;
	c22 12.0490;
	z23 0.187225+0.370397j;
	c23 0.0000;
	z31 0.187225+0.370397j;
	c31 0.0000;
	z32 0.187225+0.370397j;
	c32 0.0000;
	z33 0.230325+0.691356j;
	c33 12.0490;
}

object line_configuration {
	name "lcon10d1insn10d1acsrdefaultohconstaA";
	z11 1.29391+1.04411j;
	c11 10.9194;
}

object line_configuration {
	name "lcon10d1insn2d1aaacdefaultohconstcC";
	z33 1.36912+1.18492j;
	c33 10.9194;
}

object line_configuration {
	name "lcon10d1insn10d1acsrdefaultohconstcC";
	z33 1.29391+1.04411j;
	c33 10.9194;
}

object line_configuration {
	name "lconpn6d1steeldefaultohconstbB";
	z22 7.45978+1.51043j;
	c22 10.2344;
}

object line_configuration {
	name "lconpn10d1aaacdefaultohconstbB";
	z22 1.33875+1.05924j;
	c22 10.9194;
}

object line_configuration {
	name "lconpnd3-10defaultohconstbB";
	z22 0.297947+0.603136j;
	c22 10.7945;
}

object line_configuration {
	name "lconpppmowired1ugd1conductordefaultugsecconstabcABC";
	z11 1.72160+0.658816j;
	c11 204.4738;
	z12 0.608992+0.409580j;
	c12 0.0000;
	z13 0.608992+0.409580j;
	c13 0.0000;
	z21 0.608992+0.409580j;
	c21 0.0000;
	z22 1.72160+0.658816j;
	c22 204.4738;
	z23 0.608992+0.409580j;
	c23 0.0000;
	z31 0.608992+0.409580j;
	c31 0.0000;
	z32 0.608992+0.409580j;
	c32 0.0000;
	z33 1.72160+0.658816j;
	c33 204.4738;
}

object line_configuration {
	name "lconppp2d1insn336d1acsrdefaultohconstabcABC";
	z11 1.76427+0.897542j;
	c11 10.7508;
	z12 0.134270+0.323642j;
	c12 0.0000;
	z13 0.134270+0.323642j;
	c13 0.0000;
	z21 0.134270+0.323642j;
	c21 0.0000;
	z22 1.76427+0.897542j;
	c22 10.7508;
	z23 0.134270+0.323642j;
	c23 0.0000;
	z31 0.134270+0.323642j;
	c31 0.0000;
	z32 0.134270+0.323642j;
	c32 0.0000;
	z33 1.76427+0.897542j;
	c33 10.7508;
}

object line_configuration {
	name "lconpppnk4-40defaultohsecconstabcABC";
	z11 0.000129000-0.0949700j;
	c11 73.8584;
	z12 0.000129000-0.0368870j;
	c12 -25.1446;
	z13 0.000129000-0.0368870j;
	c13 -25.1446;
	z21 0.000129000-0.0368870j;
	c21 -25.1446;
	z22 0.000129000-0.0949700j;
	c22 73.8584;
	z23 0.000129000-0.0368870j;
	c23 -25.1446;
	z31 0.000129000-0.0368870j;
	c31 -25.1446;
	z32 0.000129000-0.0368870j;
	c32 -25.1446;
	z33 0.000129000-0.0949700j;
	c33 73.8584;
}

object line_configuration {
	name "lconppn2d1acsrdefaultohconstbcBC";
	z22 1.72566+1.26725j;
	c22 10.6204;
	z23 0.315658+0.602602j;
	c23 0.0000;
	z32 0.315658+0.602602j;
	c32 0.0000;
	z33 1.72566+1.26725j;
	c33 10.6204;
}

object line_configuration {
	name "lconppp40d1insn40d1acsrdefaultohconstabcABC";
	z11 0.616333+0.900191j;
	c11 11.4020;
	z12 0.174333+0.396895j;
	c12 0.0000;
	z13 0.174333+0.396895j;
	c13 0.0000;
	z21 0.174333+0.396895j;
	c21 0.0000;
	z22 0.616333+0.900191j;
	c22 11.4020;
	z23 0.174333+0.396895j;
	c23 0.0000;
	z31 0.174333+0.396895j;
	c31 0.0000;
	z32 0.174333+0.396895j;
	c32 0.0000;
	z33 0.616333+0.900191j;
	c33 11.4020;
}

object line_configuration {
	name "lconpn4d1aaacdefaultohconstaA";
	z11 2.56921+1.32873j;
	c11 10.3330;
}

object line_configuration {
	name "lcon10d1insn6adefaultohconstaA";
	z11 1.35543+1.26803j;
	c11 10.9194;
}

object line_configuration {
	name "lcon10d1insn2d1acsrdefaultohconstcC";
	z33 1.34566+1.14830j;
	c33 10.9194;
}

object line_configuration {
	name "lcon10d1insn2d1aaacdefaultohconstbB";
	z22 1.36912+1.18492j;
	c22 10.9194;
}

object line_configuration {
	name "lconpppud2-#2defaultugconstabcABC";
	z11 1.97152+0.601234j;
	c11 -422.1928;
	z12 0.589616+0.337505j;
	c12 0.0000;
	z13 0.589616+0.337505j;
	c13 0.0000;
	z21 0.589616+0.337505j;
	c21 0.0000;
	z22 1.97152+0.601234j;
	c22 -422.1928;
	z23 0.589616+0.337505j;
	c23 0.0000;
	z31 0.589616+0.337505j;
	c31 0.0000;
	z32 0.589616+0.337505j;
	c32 0.0000;
	z33 1.97152+0.601234j;
	c33 -422.1928;
}

object line_configuration {
	name "lconppp336d1acsrn4d1acsrdefaultohconstabcABC";
	z11 0.601595+1.17616j;
	c11 11.7710;
	z12 0.323595+0.725593j;
	c12 0.0000;
	z13 0.323595+0.725593j;
	c13 0.0000;
	z21 0.323595+0.725593j;
	c21 0.0000;
	z22 0.601595+1.17616j;
	c22 11.7710;
	z23 0.323595+0.725593j;
	c23 0.0000;
	z31 0.323595+0.725593j;
	c31 0.0000;
	z32 0.323595+0.725593j;
	c32 0.0000;
	z33 0.601595+1.17616j;
	c33 11.7710;
}

object line_configuration {
	name "lconpppn336d1ald1insdefaultohconstabcABC";
	z11 0.412270+0.774206j;
	c11 11.7710;
	z12 0.134270+0.323642j;
	c12 0.0000;
	z13 0.134270+0.323642j;
	c13 0.0000;
	z21 0.134270+0.323642j;
	c21 0.0000;
	z22 0.412270+0.774206j;
	c22 11.7710;
	z23 0.134270+0.323642j;
	c23 0.0000;
	z31 0.134270+0.323642j;
	c31 0.0000;
	z32 0.134270+0.323642j;
	c32 0.0000;
	z33 0.412270+0.774206j;
	c33 11.7710;
}

object line_configuration {
	name "lconpnd3-#2defaultohconstaA";
	z11 0.333612+0.650773j;
	c11 10.4831;
}

object line_configuration {
	name "lcon4d1acsr6a4d1acsrn6adefaultohconstabcABC";
	z11 2.56543+1.38158j;
	c11 10.3330;
	z12 0.325430+0.722328j;
	c12 0.0000;
	z13 0.325430+0.722328j;
	c13 0.0000;
	z21 0.325430+0.722328j;
	c21 0.0000;
	z22 2.53543+1.37044j;
	c22 10.2344;
	z23 0.325430+0.722328j;
	c23 0.0000;
	z31 0.325430+0.722328j;
	c31 0.0000;
	z32 0.325430+0.722328j;
	c32 0.0000;
	z33 2.56543+1.38158j;
	c33 10.3330;
}

object line_configuration {
	name "lconpp40d1insn40d1acsrdefaultohconstacAC";
	z11 0.616333+0.900191j;
	c11 11.4020;
	z13 0.174333+0.396895j;
	c13 0.0000;
	z31 0.174333+0.396895j;
	c31 0.0000;
	z33 0.616333+0.900191j;
	c33 11.4020;
}

object line_configuration {
	name "lconpppunknownd1secondaryunddefaultugsecconstabcABC";
	z11 1.72160+0.658816j;
	c11 204.4739;
	z12 0.608992+0.409580j;
	c12 0.0000;
	z13 0.608992+0.409580j;
	c13 0.0000;
	z21 0.608992+0.409580j;
	c21 0.0000;
	z22 1.72160+0.658816j;
	c22 204.4739;
	z23 0.608992+0.409580j;
	c23 0.0000;
	z31 0.608992+0.409580j;
	c31 0.0000;
	z32 0.608992+0.409580j;
	c32 0.0000;
	z33 1.72160+0.658816j;
	c33 204.4739;
}

object line_configuration {
	name "lconppp40d1insn10d1insdefaultohconstabcABC";
	z11 0.750751+1.01684j;
	c11 11.4020;
	z12 0.308751+0.513541j;
	c12 0.0000;
	z13 0.308751+0.513541j;
	c13 0.0000;
	z21 0.308751+0.513541j;
	c21 0.0000;
	z22 0.750751+1.01684j;
	c22 11.4020;
	z23 0.308751+0.513541j;
	c23 0.0000;
	z31 0.308751+0.513541j;
	c31 0.0000;
	z32 0.308751+0.513541j;
	c32 0.0000;
	z33 0.750751+1.01684j;
	c33 11.4020;
}

object line_configuration {
	name "lconppp10d1acsrn2d1acsrdefaultohconstabcABC";
	z11 1.20366+1.25938j;
	c11 10.9194;
	z12 0.315658+0.602602j;
	c12 0.0000;
	z13 0.315658+0.602602j;
	c13 0.0000;
	z21 0.315658+0.602602j;
	c21 0.0000;
	z22 1.20366+1.25938j;
	c22 10.9194;
	z23 0.315658+0.602602j;
	c23 0.0000;
	z31 0.315658+0.602602j;
	c31 0.0000;
	z32 0.315658+0.602602j;
	c32 0.0000;
	z33 1.20366+1.25938j;
	c33 10.9194;
}

object line_configuration {
	name "lconpppn40d1acsrdefaultohconstabcABC";
	z11 0.619333+0.980668j;
	c11 12.1758;
	z12 0.174333+0.396895j;
	c12 0.0000;
	z13 0.174333+0.396895j;
	c13 0.0000;
	z21 0.174333+0.396895j;
	c21 0.0000;
	z22 0.619333+0.980668j;
	c22 12.1758;
	z23 0.174333+0.396895j;
	c23 0.0000;
	z31 0.174333+0.396895j;
	c31 0.0000;
	z32 0.174333+0.396895j;
	c32 0.0000;
	z33 0.619333+0.980668j;
	c33 12.1758;
}

object line_configuration {
	name "lconppnk4-10defaultohsecconstacAC";
	z11 0.392920-0.102368j;
	c11 65.7364;
	z13 0.202920-0.0536720j;
	c13 -25.6114;
	z31 0.202920-0.0536720j;
	c31 -25.6114;
	z33 0.392920-0.102368j;
	c33 65.7364;
}

object line_configuration {
	name "lconpppuk3-40defaultugconstabcABC";
	z11 0.230470+1.09507j;
	c11 0.0000;
	z12 0.0953020+1.31249j;
	c12 0.0000;
	z13 0.0953020+1.31249j;
	c13 0.0000;
	z21 0.0953020+1.31249j;
	c21 0.0000;
	z22 0.230470+1.09507j;
	c22 0.0000;
	z23 0.0953020+1.31249j;
	c23 0.0000;
	z31 0.0953020+1.31249j;
	c31 0.0000;
	z32 0.0953020+1.31249j;
	c32 0.0000;
	z33 0.230470+1.09507j;
	c33 0.0000;
}

object line_configuration {
	name "lconpn10d1acsrdefaultohconstaA";
	z11 1.15191+1.15519j;
	c11 10.9194;
}

object line_configuration {
	name "lconppp336d1ald1insn2d1acsrdefaultohconstabcABC";
	z11 0.593658+1.05317j;
	c11 11.7710;
	z12 0.315658+0.602602j;
	c12 0.0000;
	z13 0.315658+0.602602j;
	c13 0.0000;
	z21 0.315658+0.602602j;
	c21 0.0000;
	z22 0.593658+1.05317j;
	c22 11.7710;
	z23 0.315658+0.602602j;
	c23 0.0000;
	z31 0.315658+0.602602j;
	c31 0.0000;
	z32 0.315658+0.602602j;
	c32 0.0000;
	z33 0.593658+1.05317j;
	c33 11.7710;
}

object line_configuration {
	name "lconpppnunknownd1secondaryovedefaultohconstabcABC";
	z11 1.33875+1.05924j;
	c11 10.9194;
	z12 0.308751+0.513541j;
	c12 0.0000;
	z13 0.308751+0.513541j;
	c13 0.0000;
	z21 0.308751+0.513541j;
	c21 0.0000;
	z22 1.33875+1.05924j;
	c22 10.9194;
	z23 0.308751+0.513541j;
	c23 0.0000;
	z31 0.308751+0.513541j;
	c31 0.0000;
	z32 0.308751+0.513541j;
	c32 0.0000;
	z33 1.33875+1.05924j;
	c33 10.9194;
}

object line_configuration {